examples/demonstration/ieee14_dgprct1_out.txt
ANDES 1.3.12.post57.dev0+g89a048bb
Copyright (C) 2015-2021 Hantao Cui

ANDES comes with ABSOLUTELY NO WARRANTY
Case file: /home/jwang175/andes/andes/cases/ieee14/ieee14_dgprct1.xlsx
Report time: 09/01/2021 08:42:20 PM

Power flow converged in 4 iterations.
Flat-start: No

Statistics:
Buses                     14
Generators                 6
Committed Gens             6
Loads                     12
Shunts                     2
Lines                     20
Transformers               4
Areas                      2

EXTENDED SUMMARY:
                      P (pu)        Q (pu)

Generation            2.2644       0.49478
Load                   2.537         0.954

BUS DATA:
                    Bus Name        Vm(pu)      Va(rad.)

1                       BUS1          1.03    8.0438e-20
2                       BUS2          1.03     -0.030782
3                       BUS3          1.01      -0.06171
4                       BUS4          1.01     -0.076403
5                       BUS5        1.0163     -0.066958
6                       BUS6          1.03      -0.11457
7                       BUS7        1.0219      -0.09135
8                       BUS8          1.03     -0.041285
9                       BUS9         1.021       -0.1308
10                     BUS10        1.0148      -0.13334
11                     BUS11        1.0187      -0.12651
12                     BUS12        1.0174      -0.13256
13                     BUS13        1.0143      -0.13704
14                     BUS14        1.0158      -0.16895

LINE DATA:
                   Line Name Fr. Bus (idx)  To Bus (idx)   P From (pu)   Q From (pu)     P To (pu)     Q To (pu)

Line_1                Line_1             1             2       0.50088      -0.18357      -0.49585       0.14289
Line_2                Line_2             1             5       0.31349     -0.028253      -0.30849    -0.0025907
Line_3                Line_3             2             3       0.17777      0.041139      -0.17619     -0.080042
Line_4                Line_4             2             4       0.27927      0.012897      -0.27494     -0.035153
Line_5                Line_5             2             5       0.22181    -0.0059056      -0.21916     -0.022227
Line_6                Line_6             3             4      0.076191     -0.035737     -0.075753      0.023796
Line_7                Line_7             4             5      -0.25243     -0.069973       0.25333      0.072805
Line_8                Line_8             6            11      0.074126      0.023353     -0.073585      -0.02222
Line_9                Line_9             6            12      0.079981      0.013119      -0.07922     -0.011535
Line_10              Line_10             6            13       0.19421      0.027592      -0.19182     -0.022867
Line_11              Line_11             7             9       0.37401      0.016081      -0.37401    -0.0013185
Line_12              Line_12             9            10      0.051707      0.054516     -0.051534     -0.054058
Line_13              Line_13             9            14       0.12842     -0.038022      -0.12623      0.042675
Line_14              Line_14            10            11     -0.038466    -0.0039415      0.038585     0.0042203
Line_15              Line_15            12            13       0.01822    -0.0044647     -0.018144     0.0045327
Line_16              Line_16            13            14       0.07496     -0.039665     -0.073765      0.042098
Line_17              Line_17             4             7      0.074006     -0.041272     -0.074006      0.042734
Line_18              Line_18             4             9       0.10112     -0.011268      -0.10112      0.016876
Line_19              Line_19             6             5      -0.19832      0.074583       0.19832     -0.063987
Line_20              Line_20             8             7           0.3       0.07458          -0.3     -0.058815

OTHER ALGEBRAIC VARIABLES:
                            

p PV 2                   0.4
p PV 3                   0.4
p PV 4                   0.3
p PV 5                   0.3
p PV 6                  0.05
q PV 2               0.31803
q PV 3               0.13422
q PV 4               0.21365
q PV 5               0.07458
q PV 6              -0.03387
p Slack 1            0.81437
q Slack 1           -0.21182

